# MODFLOW2005 Basic Package
#NFSEG version 1.1 (draft 2017-01-20)
# Developed by the SJRWMD and SRWMD, with assistance from the SWFWMD and NWFWMD
FREE SHOWPROGRESS CONVERGE
 OPEN/CLOSE 'ibound1.inf'  1    '(FREE)'  -1                 IBOUND Layer   1
 OPEN/CLOSE 'ibound2.inf'  1    '(FREE)'  -1                 IBOUND Layer   2
 OPEN/CLOSE 'ibound3.inf'  1    '(FREE)'  -1                 IBOUND Layer   3
 OPEN/CLOSE 'ibound4.inf'  1    '(FREE)'  -1                 IBOUND Layer   4
 OPEN/CLOSE 'ibound5.inf'  1    '(FREE)'  -1                 IBOUND Layer   5
 OPEN/CLOSE 'ibound6.inf'  1    '(FREE)'  -1                 IBOUND Layer   6
 OPEN/CLOSE 'ibound7.inf'  1    '(FREE)'  -1                 IBOUND Layer   7
 -99999.000000
       -23     1.000(10e23.15)                  -1
       -23     1.000(10e23.15)                  -1
       -23     1.000(10e23.15)                  -1
       -23     1.000(10e23.15)                  -1
       -23     1.000(10e23.15)                  -1
       -23     1.000(10e23.15)                  -1
       -23     1.000(10e23.15)                  -1
